<additional>
    <vType id="car" maxSpeed="20" accel="2.0" decel="4.5"/>
</additional>
