<?xml version="1.0" encoding="UTF-8"?>

<!-- generated on 2026-03-03T01:17:28.787025+05:30 by Eclipse SUMO netconvert 1.25.0
<netconvertConfiguration xmlns:xsi="http://www.w3.org/2001/XMLSchema-instance" xsi:noNamespaceSchemaLocation="http://sumo.dlr.de/xsd/netconvertConfiguration.xsd">

    <input>
        <osm-files value="bhubaneswar.osm"/>
    </input>

    <output>
        <output-file value="city.net.xml"/>
    </output>

    <projection>
        <proj.utm value="true"/>
    </projection>

    <processing>
        <geometry.remove value="true"/>
    </processing>

    <tls_building>
        <tls.guess-signals value="true"/>
    </tls_building>

    <ramp_guessing>
        <ramps.guess value="true"/>
    </ramp_guessing>

    <junctions>
        <junctions.join value="true"/>
    </junctions>

    <report>
        <no-warnings value="true"/>
    </report>

</netconvertConfiguration>
-->

<net version="1.20" junctionCornerDetail="5" limitTurnSpeed="5.50" xmlns:xsi="http://www.w3.org/2001/XMLSchema-instance" xsi:noNamespaceSchemaLocation="http://sumo.dlr.de/xsd/net_file.xsd">

    <location netOffset="-376084.40,-2240409.56" convBoundary="0.00,0.00,3030.87,3256.17" origBoundary="85.813428,20.257460,85.842427,20.286840" projParameter="+proj=utm +zone=45 +ellps=WGS84 +datum=WGS84 +units=m +no_defs"/>

    <type id="highway.footway" priority="1" numLanes="1" speed="2.78" allow="pedestrian" oneway="1" width="2.00"/>
    <type id="highway.living_street" priority="2" numLanes="1" speed="2.78" disallow="tram rail_urban rail rail_electric rail_fast ship container cable_car subway aircraft wheelchair scooter drone" oneway="0"/>
    <type id="highway.primary" priority="12" numLanes="2" speed="27.78" disallow="tram rail_urban rail rail_electric rail_fast ship container cable_car subway aircraft wheelchair scooter drone" oneway="0"/>
    <type id="highway.primary_link" priority="7" numLanes="1" speed="22.22" disallow="tram rail_urban rail rail_electric rail_fast ship container cable_car subway aircraft wheelchair scooter drone" oneway="0"/>
    <type id="highway.residential" priority="3" numLanes="1" speed="13.89" disallow="tram rail_urban rail rail_electric rail_fast ship container cable_car subway aircraft wheelchair scooter drone" oneway="0"/>
    <type id="highway.secondary" priority="11" numLanes="1" speed="27.78" disallow="tram rail_urban rail rail_electric rail_fast ship container cable_car subway aircraft wheelchair scooter drone" oneway="0"/>
    <type id="highway.secondary_link" priority="6" numLanes="1" speed="22.22" disallow="tram rail_urban rail rail_electric rail_fast ship container cable_car subway aircraft wheelchair scooter drone" oneway="0"/>
    <type id="highway.service" priority="1" numLanes="1" speed="5.56" allow="pedestrian delivery bicycle" oneway="0"/>
    <type id="highway.tertiary" priority="10" numLanes="1" speed="22.22" disallow="tram rail_urban rail rail_electric rail_fast ship container cable_car subway aircraft wheelchair scooter drone" oneway="0"/>
    <type id="highway.unclassified" priority="4" numLanes="1" speed="13.89" disallow="tram rail_urban rail rail_electric rail_fast ship container cable_car subway aircraft wheelchair scooter drone" oneway="0"/>

    <edge id=":1051669905_0" function="internal">
        <lane id=":1051669905_0_0" index="0" disallow="tram rail_urban rail rail_electric rail_fast ship container cable_car subway aircraft wheelchair scooter drone" speed="3.65" length="4.67" shape="3030.39,1652.18 3031.77,1652.59 3032.40,1653.23 3032.25,1654.11 3031.35,1655.24"/>
    </edge>
    <edge id=":1051669950_0" function="internal">
        <lane id=":1051669950_0_0" index="0" disallow="tram rail_urban rail rail_electric rail_fast ship container cable_car subway aircraft wheelchair scooter drone" speed="6.50" length="9.03" shape="2191.53,1530.32 2190.20,1528.23 2188.52,1527.07 2186.50,1526.83 2184.12,1527.53"/>
    </edge>
    <edge id=":1051669950_1" function="internal">
        <lane id=":1051669950_1_0" index="0" disallow="tram rail_urban rail rail_electric rail_fast ship container cable_car subway aircraft wheelchair scooter drone" speed="13.89" length="14.47" shape="2191.53,1530.32 2185.66,1517.09"/>
    </edge>
    <edge id=":1051669950_2" function="internal">
        <lane id=":1051669950_2_0" index="0" disallow="tram rail_urban rail rail_electric rail_fast ship container cable_car subway aircraft wheelchair scooter drone" speed="8.01" length="14.23" shape="2191.53,1530.32 2190.45,1526.58 2190.82,1523.39 2192.66,1520.75 2195.96,1518.66"/>
    </edge>
    <edge id=":1051669950_3" function="internal">
        <lane id=":1051669950_3_0" index="0" disallow="tram rail_urban rail rail_electric rail_fast ship container cable_car subway aircraft wheelchair scooter drone" speed="3.65" length="4.67" shape="2191.53,1530.32 2191.76,1528.89 2192.33,1528.20 2193.22,1528.24 2194.44,1529.00"/>
    </edge>
    <edge id=":1051669950_4" function="internal">
        <lane id=":1051669950_4_0" index="0" disallow="tram rail_urban rail rail_electric rail_fast ship container cable_car subway aircraft wheelchair scooter drone" speed="6.51" length="9.06" shape="2197.28,1521.58 2195.17,1522.91 2194.00,1524.59 2193.76,1526.62 2194.44,1529.00"/>
    </edge>
    <edge id=":1051669950_5" function="internal">
        <lane id=":1051669950_5_0" index="0" disallow="tram rail_urban rail rail_electric rail_fast ship container cable_car subway aircraft wheelchair scooter drone" speed="27.78" length="14.44" shape="2197.28,1521.58 2184.12,1527.53"/>
    </edge>
    <edge id=":1051669950_6" function="internal">
        <lane id=":1051669950_6_0" index="0" disallow="tram rail_urban rail rail_electric rail_fast ship container cable_car subway aircraft wheelchair scooter drone" speed="7.98" length="4.06" shape="2197.28,1521.58 2193.52,1522.66 2193.37,1522.64"/>
    </edge>
    <edge id=":1051669950_7" function="internal">
        <lane id=":1051669950_7_0" index="0" disallow="tram rail_urban rail rail_electric rail_fast ship container cable_car subway aircraft wheelchair scooter drone" speed="3.65" length="1.44" shape="2197.28,1521.58 2195.85,1521.34"/>
    </edge>
    <edge id=":1051669950_16" function="internal">
        <lane id=":1051669950_16_0" index="0" disallow="tram rail_urban rail rail_electric rail_fast ship container cable_car subway aircraft wheelchair scooter drone" speed="7.98" length="10.17" shape="2193.37,1522.64 2190.33,1522.27 2187.71,1520.42 2185.66,1517.09"/>
    </edge>
    <edge id=":1051669950_17" function="internal">
        <lane id=":1051669950_17_0" index="0" disallow="tram rail_urban rail rail_electric rail_fast ship container cable_car subway aircraft wheelchair scooter drone" speed="3.65" length="3.23" shape="2195.85,1521.34 2195.16,1520.78 2195.20,1519.88 2195.96,1518.66"/>
    </edge>
    <edge id=":1051669950_8" function="internal">
        <lane id=":1051669950_8_0" index="0" disallow="tram rail_urban rail rail_electric rail_fast ship container cable_car subway aircraft wheelchair scooter drone" speed="6.48" length="9.03" shape="2188.60,1515.82 2189.90,1517.92 2191.56,1519.10 2193.58,1519.35 2195.96,1518.66"/>
    </edge>
    <edge id=":1051669950_9" function="internal">
        <lane id=":1051669950_9_0" index="0" disallow="tram rail_urban rail rail_electric rail_fast ship container cable_car subway aircraft wheelchair scooter drone" speed="13.89" length="14.42" shape="2188.60,1515.82 2194.44,1529.00"/>
    </edge>
    <edge id=":1051669950_10" function="internal">
        <lane id=":1051669950_10_0" index="0" disallow="tram rail_urban rail rail_electric rail_fast ship container cable_car subway aircraft wheelchair scooter drone" speed="8.06" length="14.25" shape="2188.60,1515.82 2189.64,1519.58 2189.24,1522.78 2187.40,1525.43 2184.12,1527.53"/>
    </edge>
    <edge id=":1051669950_11" function="internal">
        <lane id=":1051669950_11_0" index="0" disallow="tram rail_urban rail rail_electric rail_fast ship container cable_car subway aircraft wheelchair scooter drone" speed="3.65" length="4.67" shape="2188.60,1515.82 2188.34,1517.23 2187.77,1517.92 2186.87,1517.87 2185.66,1517.09"/>
    </edge>
    <edge id=":1051669950_12" function="internal">
        <lane id=":1051669950_12_0" index="0" disallow="tram rail_urban rail rail_electric rail_fast ship container cable_car subway aircraft wheelchair scooter drone" speed="6.58" length="9.15" shape="2182.80,1524.61 2184.90,1523.27 2186.08,1521.57 2186.33,1519.51 2185.66,1517.09"/>
    </edge>
    <edge id=":1051669950_13" function="internal">
        <lane id=":1051669950_13_0" index="0" disallow="tram rail_urban rail rail_electric rail_fast ship container cable_car subway aircraft wheelchair scooter drone" speed="27.78" length="14.45" shape="2182.80,1524.61 2195.96,1518.66"/>
    </edge>
    <edge id=":1051669950_14" function="internal">
        <lane id=":1051669950_14_0" index="0" disallow="tram rail_urban rail rail_electric rail_fast ship container cable_car subway aircraft wheelchair scooter drone" speed="8.00" length="4.08" shape="2182.80,1524.61 2186.53,1523.52 2186.72,1523.54"/>
    </edge>
    <edge id=":1051669950_15" function="internal">
        <lane id=":1051669950_15_0" index="0" disallow="tram rail_urban rail rail_electric rail_fast ship container cable_car subway aircraft wheelchair scooter drone" speed="3.65" length="1.44" shape="2182.80,1524.61 2184.22,1524.85"/>
    </edge>
    <edge id=":1051669950_18" function="internal">
        <lane id=":1051669950_18_0" index="0" disallow="tram rail_urban rail rail_electric rail_fast ship container cable_car subway aircraft wheelchair scooter drone" speed="8.00" length="10.12" shape="2186.72,1523.54 2189.72,1523.89 2192.36,1525.71 2194.44,1529.00"/>
    </edge>
    <edge id=":1051669950_19" function="internal">
        <lane id=":1051669950_19_0" index="0" disallow="tram rail_urban rail rail_electric rail_fast ship container cable_car subway aircraft wheelchair scooter drone" speed="3.65" length="3.23" shape="2184.22,1524.85 2184.91,1525.41 2184.88,1526.30 2184.12,1527.53"/>
    </edge>
    <edge id=":10578971194_0" function="internal">
        <lane id=":10578971194_0_0" index="0" disallow="tram rail_urban rail rail_electric rail_fast ship container cable_car subway aircraft wheelchair scooter drone" speed="8.45" length="9.75" shape="1019.18,1338.70 1018.15,1336.64 1016.58,1335.01 1014.47,1333.81 1011.82,1333.04"/>
    </edge>
    <edge id=":10578971194_1" function="internal">
        <lane id=":10578971194_1_0" index="0" disallow="tram rail_urban rail rail_electric rail_fast ship container cable_car subway aircraft wheelchair scooter drone" speed="13.89" length="13.27" shape="1019.18,1338.70 1018.29,1335.34 1017.96,1332.21 1018.17,1329.06 1018.90,1325.65"/>
    </edge>
    <edge id=":10578971194_2" function="internal">
        <lane id=":10578971194_2_0" index="0" disallow="tram rail_urban rail rail_electric rail_fast ship container cable_car subway aircraft wheelchair scooter drone" speed="3.65" length="1.44" shape="1019.18,1338.70 1019.56,1337.31"/>
    </edge>
    <edge id=":10578971194_9" function="internal">
        <lane id=":10578971194_9_0" index="0" disallow="tram rail_urban rail rail_electric rail_fast ship container cable_car subway aircraft wheelchair scooter drone" speed="3.65" length="3.23" shape="1019.56,1337.31 1020.19,1336.68 1021.08,1336.81 1022.21,1337.70"/>
    </edge>
    <edge id=":10578971194_3" function="internal">
        <lane id=":10578971194_3_0" index="0" disallow="tram rail_urban rail rail_electric rail_fast ship container cable_car subway aircraft wheelchair scooter drone" speed="13.89" length="11.57" shape="1022.02,1326.37 1021.28,1329.50 1021.04,1332.06 1021.34,1334.60 1022.21,1337.70"/>
    </edge>
    <edge id=":10578971194_4" function="internal">
        <lane id=":10578971194_4_0" index="0" disallow="tram rail_urban rail rail_electric rail_fast ship container cable_car subway aircraft wheelchair scooter drone" speed="8.09" length="3.67" shape="1022.02,1326.37 1020.60,1329.75"/>
    </edge>
    <edge id=":10578971194_5" function="internal">
        <lane id=":10578971194_5_0" index="0" disallow="tram rail_urban rail rail_electric rail_fast ship container cable_car subway aircraft wheelchair scooter drone" speed="3.65" length="1.44" shape="1022.02,1326.37 1020.97,1327.36"/>
    </edge>
    <edge id=":10578971194_10" function="internal">
        <lane id=":10578971194_10_0" index="0" disallow="tram rail_urban rail rail_electric rail_fast ship container cable_car subway aircraft wheelchair scooter drone" speed="8.09" length="10.01" shape="1020.60,1329.75 1020.55,1329.86 1018.36,1332.13 1015.45,1333.19 1011.82,1333.04"/>
    </edge>
    <edge id=":10578971194_11" function="internal">
        <lane id=":10578971194_11_0" index="0" disallow="tram rail_urban rail rail_electric rail_fast ship container cable_car subway aircraft wheelchair scooter drone" speed="3.65" length="3.23" shape="1020.97,1327.36 1020.10,1327.57 1019.41,1327.00 1018.90,1325.65"/>
    </edge>
    <edge id=":10578971194_6" function="internal">
        <lane id=":10578971194_6_0" index="0" disallow="tram rail_urban rail rail_electric rail_fast ship container cable_car subway aircraft wheelchair scooter drone" speed="5.85" length="10.75" shape="1012.51,1329.91 1014.34,1331.61 1016.01,1331.47 1017.54,1329.48 1018.90,1325.65"/>
    </edge>
    <edge id=":10578971194_7" function="internal">
        <lane id=":10578971194_7_0" index="0" disallow="tram rail_urban rail rail_electric rail_fast ship container cable_car subway aircraft wheelchair scooter drone" speed="13.89" length="12.70" shape="1012.51,1329.91 1015.04,1332.17 1017.87,1333.54 1020.45,1335.05 1022.21,1337.70"/>
    </edge>
    <edge id=":10578971194_8" function="internal">
        <lane id=":10578971194_8_0" index="0" disallow="tram rail_urban rail rail_electric rail_fast ship container cable_car subway aircraft wheelchair scooter drone" speed="4.06" length="4.68" shape="1012.51,1329.91 1013.51,1330.95 1013.73,1331.82 1013.17,1332.52 1011.82,1333.04"/>
    </edge>
    <edge id=":10578971198_0" function="internal">
        <lane id=":10578971198_0_0" index="0" disallow="tram rail_urban rail rail_electric rail_fast ship container cable_car subway aircraft wheelchair scooter drone" speed="4.29" length="1.18" shape="1012.96,1315.29 1012.62,1315.30 1012.38,1315.36 1012.17,1315.48 1011.91,1315.70"/>
    </edge>
    <edge id=":10578971198_1" function="internal">
        <lane id=":10578971198_1_0" index="0" disallow="tram rail_urban rail rail_electric rail_fast ship container cable_car subway aircraft wheelchair scooter drone" speed="6.81" length="3.54" shape="1009.77,1313.32 1010.56,1312.65 1011.19,1312.28 1011.91,1312.13 1012.94,1312.09"/>
    </edge>
    <edge id=":10578971202_0" function="internal">
        <lane id=":10578971202_0_0" index="0" disallow="tram rail_urban rail rail_electric rail_fast ship container cable_car subway aircraft wheelchair scooter drone" speed="27.78" length="9.40" shape="1118.06,1323.54 1109.28,1326.90"/>
        <lane id=":10578971202_0_1" index="1" disallow="tram rail_urban rail rail_electric rail_fast ship container cable_car subway aircraft wheelchair scooter drone" speed="27.78" length="9.40" shape="1116.91,1320.55 1108.13,1323.91"/>
    </edge>
    <edge id=":10578971202_2" function="internal">
        <lane id=":10578971202_2_0" index="0" disallow="tram rail_urban rail rail_electric rail_fast ship container cable_car subway aircraft wheelchair scooter drone" speed="6.08" length="7.77" shape="1116.91,1320.55 1114.27,1321.35 1112.22,1321.51 1110.77,1321.02 1109.92,1319.88"/>
    </edge>
    <edge id=":10578971202_3" function="internal">
        <lane id=":10578971202_3_0" index="0" disallow="tram rail_urban rail rail_electric rail_fast ship container cable_car subway aircraft wheelchair scooter drone" speed="6.09" length="7.76" shape="1112.91,1318.75 1113.03,1320.17 1112.27,1321.50 1110.64,1322.74 1108.13,1323.91"/>
    </edge>
    <edge id=":10578971202_4" function="internal">
        <lane id=":10578971202_4_0" index="0" disallow="tram rail_urban rail rail_electric rail_fast ship container cable_car subway aircraft wheelchair scooter drone" speed="3.65" length="4.67" shape="1112.91,1318.75 1112.59,1320.16 1111.98,1320.82 1111.09,1320.72 1109.92,1319.88"/>
    </edge>
    <edge id=":10578971203_0" function="internal">
        <lane id=":10578971203_0_0" index="0" disallow="tram rail_urban rail rail_electric rail_fast ship container cable_car subway aircraft wheelchair scooter drone" speed="9.38" length="8.18" shape="1104.27,1304.90 1103.37,1303.09 1102.14,1301.54 1100.57,1300.25 1098.67,1299.23"/>
    </edge>
    <edge id=":10578971203_1" function="internal">
        <lane id=":10578971203_1_0" index="0" disallow="tram rail_urban rail rail_electric rail_fast ship container cable_car subway aircraft wheelchair scooter drone" speed="13.89" length="2.62" shape="1104.27,1304.90 1103.77,1302.32"/>
    </edge>
    <edge id=":10578971203_2" function="internal">
        <lane id=":10578971203_2_0" index="0" disallow="tram rail_urban rail rail_electric rail_fast ship container cable_car subway aircraft wheelchair scooter drone" speed="3.65" length="1.34" shape="1104.27,1304.90 1104.57,1303.60"/>
    </edge>
    <edge id=":10578971203_9" function="internal">
        <lane id=":10578971203_9_0" index="0" disallow="tram rail_urban rail rail_electric rail_fast ship container cable_car subway aircraft wheelchair scooter drone" speed="13.89" length="7.87" shape="1103.77,1302.32 1103.72,1302.06 1104.30,1300.01 1105.35,1297.90 1106.24,1294.92"/>
    </edge>
    <edge id=":10578971203_10" function="internal">
        <lane id=":10578971203_10_0" index="0" disallow="tram rail_urban rail rail_electric rail_fast ship container cable_car subway aircraft wheelchair scooter drone" speed="3.65" length="3.34" shape="1104.57,1303.60 1104.59,1303.49 1105.20,1302.84 1106.09,1302.93 1107.26,1303.77"/>
    </edge>
    <edge id=":10578971203_3" function="internal">
        <lane id=":10578971203_3_0" index="0" disallow="tram rail_urban rail rail_electric rail_fast ship container cable_car subway aircraft wheelchair scooter drone" speed="7.22" length="7.24" shape="1108.70,1297.07 1107.56,1298.65 1106.94,1300.29 1106.84,1302.00 1107.26,1303.77"/>
    </edge>
    <edge id=":10578971203_4" function="internal">
        <lane id=":10578971203_4_0" index="0" disallow="tram rail_urban rail rail_electric rail_fast ship container cable_car subway aircraft wheelchair scooter drone" speed="8.13" length="11.03" shape="1108.70,1297.07 1106.49,1298.96 1104.08,1299.95 1101.48,1300.04 1098.67,1299.23"/>
    </edge>
    <edge id=":10578971203_5" function="internal">
        <lane id=":10578971203_5_0" index="0" disallow="tram rail_urban rail rail_electric rail_fast ship container cable_car subway aircraft wheelchair scooter drone" speed="3.97" length="4.76" shape="1108.70,1297.07 1107.28,1297.45 1106.40,1297.22 1106.05,1296.38 1106.24,1294.92"/>
    </edge>
    <edge id=":10578971203_6" function="internal">
        <lane id=":10578971203_6_0" index="0" disallow="tram rail_urban rail rail_electric rail_fast ship container cable_car subway aircraft wheelchair scooter drone" speed="5.60" length="7.65" shape="1099.95,1296.29 1102.47,1297.13 1104.36,1297.18 1105.62,1296.44 1106.24,1294.92"/>
    </edge>
    <edge id=":10578971203_7" function="internal">
        <lane id=":10578971203_7_0" index="0" disallow="tram rail_urban rail rail_electric rail_fast ship container cable_car subway aircraft wheelchair scooter drone" speed="10.68" length="10.74" shape="1099.95,1296.29 1102.42,1297.63 1104.46,1299.33 1106.07,1301.37 1107.26,1303.77"/>
    </edge>
    <edge id=":10578971203_8" function="internal">
        <lane id=":10578971203_8_0" index="0" disallow="tram rail_urban rail rail_electric rail_fast ship container cable_car subway aircraft wheelchair scooter drone" speed="3.65" length="1.44" shape="1099.95,1296.29 1100.73,1297.50"/>
    </edge>
    <edge id=":10578971203_11" function="internal">
        <lane id=":10578971203_11_0" index="0" disallow="tram rail_urban rail rail_electric rail_fast ship container cable_car subway aircraft wheelchair scooter drone" speed="3.65" length="3.23" shape="1100.73,1297.50 1100.78,1298.40 1100.09,1298.97 1098.67,1299.23"/>
    </edge>
    <edge id=":10578971208_0" function="internal">
        <lane id=":10578971208_0_0" index="0" disallow="tram rail_urban rail rail_electric rail_fast ship container cable_car subway aircraft wheelchair scooter drone" speed="13.89" length="0.47" shape="1101.59,1284.21 1101.45,1284.19 1101.36,1284.19 1101.26,1284.19 1101.13,1284.21"/>
    </edge>
    <edge id=":10578971208_1" function="internal">
        <lane id=":10578971208_1_0" index="0" disallow="tram rail_urban rail rail_electric rail_fast ship container cable_car subway aircraft wheelchair scooter drone" speed="13.89" length="1.40" shape="1100.63,1281.05 1101.04,1280.99 1101.32,1280.97 1101.61,1280.98 1102.02,1281.04"/>
    </edge>
    <edge id=":10578971213_0" function="internal">
        <lane id=":10578971213_0_0" index="0" disallow="tram rail_urban rail rail_electric rail_fast ship container cable_car subway aircraft wheelchair scooter drone" speed="27.78" length="9.42" shape="1206.57,1287.30 1197.88,1290.95"/>
        <lane id=":10578971213_0_1" index="1" disallow="tram rail_urban rail rail_electric rail_fast ship container cable_car subway aircraft wheelchair scooter drone" speed="27.78" length="9.42" shape="1205.33,1284.35 1196.64,1288.00"/>
    </edge>
    <edge id=":10578971213_2" function="internal">
        <lane id=":10578971213_2_0" index="0" disallow="tram rail_urban rail rail_electric rail_fast ship container cable_car subway aircraft wheelchair scooter drone" speed="6.31" length="7.90" shape="1205.33,1284.35 1202.74,1285.22 1200.68,1285.43 1199.14,1284.98 1198.13,1283.88"/>
    </edge>
    <edge id=":10578971213_3" function="internal">
        <lane id=":10578971213_3_0" index="0" disallow="tram rail_urban rail rail_electric rail_fast ship container cable_car subway aircraft wheelchair scooter drone" speed="6.00" length="7.99" shape="1200.97,1282.40 1201.31,1283.91 1200.70,1285.35 1199.14,1286.71 1196.64,1288.00"/>
    </edge>
    <edge id=":10578971213_4" function="internal">
        <lane id=":10578971213_4_0" index="0" disallow="tram rail_urban rail rail_electric rail_fast ship container cable_car subway aircraft wheelchair scooter drone" speed="3.65" length="4.67" shape="1200.97,1282.40 1200.82,1283.83 1200.29,1284.56 1199.40,1284.57 1198.13,1283.88"/>
    </edge>
    <edge id=":10578971214_0" function="internal">
        <lane id=":10578971214_0_0" index="0" disallow="tram rail_urban rail rail_electric rail_fast ship container cable_car subway aircraft wheelchair scooter drone" speed="8.10" length="7.92" shape="1190.71,1269.63 1189.63,1268.07 1188.19,1266.89 1186.40,1266.06 1184.26,1265.61"/>
    </edge>
    <edge id=":10578971214_1" function="internal">
        <lane id=":10578971214_1_0" index="0" disallow="tram rail_urban rail rail_electric rail_fast ship container cable_car subway aircraft wheelchair scooter drone" speed="10.32" length="11.04" shape="1190.71,1269.63 1189.75,1267.13 1189.38,1264.51 1189.63,1261.78 1190.48,1258.93"/>
    </edge>
    <edge id=":10578971214_2" function="internal">
        <lane id=":10578971214_2_0" index="0" disallow="tram rail_urban rail rail_electric rail_fast ship container cable_car subway aircraft wheelchair scooter drone" speed="3.65" length="1.44" shape="1190.71,1269.63 1190.87,1268.20"/>
    </edge>
    <edge id=":10578971214_9" function="internal">
        <lane id=":10578971214_9_0" index="0" disallow="tram rail_urban rail rail_electric rail_fast ship container cable_car subway aircraft wheelchair scooter drone" speed="3.65" length="3.23" shape="1190.87,1268.20 1191.39,1267.47 1192.29,1267.46 1193.55,1268.15"/>
    </edge>
    <edge id=":10578971214_3" function="internal">
        <lane id=":10578971214_3_0" index="0" disallow="tram rail_urban rail rail_electric rail_fast ship container cable_car subway aircraft wheelchair scooter drone" speed="9.01" length="8.30" shape="1193.45,1260.10 1192.80,1262.28 1192.59,1264.35 1192.85,1266.30 1193.55,1268.15"/>
    </edge>
    <edge id=":10578971214_4" function="internal">
        <lane id=":10578971214_4_0" index="0" disallow="tram rail_urban rail rail_electric rail_fast ship container cable_car subway aircraft wheelchair scooter drone" speed="8.09" length="3.09" shape="1193.45,1260.10 1191.95,1262.80"/>
    </edge>
    <edge id=":10578971214_5" function="internal">
        <lane id=":10578971214_5_0" index="0" disallow="tram rail_urban rail rail_electric rail_fast ship container cable_car subway aircraft wheelchair scooter drone" speed="3.65" length="1.44" shape="1193.45,1260.10 1192.27,1260.92"/>
    </edge>
    <edge id=":10578971214_10" function="internal">
        <lane id=":10578971214_10_0" index="0" disallow="tram rail_urban rail rail_electric rail_fast ship container cable_car subway aircraft wheelchair scooter drone" speed="8.09" length="8.55" shape="1191.95,1262.80 1189.91,1264.62 1187.35,1265.56 1184.26,1265.61"/>
    </edge>
    <edge id=":10578971214_11" function="internal">
        <lane id=":10578971214_11_0" index="0" disallow="tram rail_urban rail rail_electric rail_fast ship container cable_car subway aircraft wheelchair scooter drone" speed="3.65" length="3.23" shape="1192.27,1260.92 1191.38,1261.00 1190.78,1260.34 1190.48,1258.93"/>
    </edge>
    <edge id=":10578971214_6" function="internal">
        <lane id=":10578971214_6_0" index="0" disallow="tram rail_urban rail rail_electric rail_fast ship container cable_car subway aircraft wheelchair scooter drone" speed="5.75" length="8.10" shape="1184.66,1262.43 1186.32,1263.14 1187.84,1262.79 1189.23,1261.39 1190.48,1258.93"/>
    </edge>
    <edge id=":10578971214_7" function="internal">
        <lane id=":10578971214_7_0" index="0" disallow="tram rail_urban rail rail_electric rail_fast ship container cable_car subway aircraft wheelchair scooter drone" speed="13.89" length="10.84" shape="1184.66,1262.43 1187.44,1263.93 1189.76,1264.72 1191.76,1265.80 1193.55,1268.15"/>
    </edge>
    <edge id=":10578971214_8" function="internal">
        <lane id=":10578971214_8_0" index="0" disallow="tram rail_urban rail rail_electric rail_fast ship container cable_car subway aircraft wheelchair scooter drone" speed="3.90" length="4.67" shape="1184.66,1262.43 1185.75,1263.38 1186.05,1264.22 1185.55,1264.96 1184.26,1265.61"/>
    </edge>
    <edge id=":10578971218_0" function="internal">
        <lane id=":10578971218_0_0" index="0" disallow="tram rail_urban rail rail_electric rail_fast ship container cable_car subway aircraft wheelchair scooter drone" speed="13.89" length="0.97" shape="1184.15,1247.93 1183.86,1247.94 1183.67,1247.98 1183.49,1248.06 1183.25,1248.22"/>
    </edge>
    <edge id=":10578971218_1" function="internal">
        <lane id=":10578971218_1_0" index="0" disallow="tram rail_urban rail rail_electric rail_fast ship container cable_car subway aircraft wheelchair scooter drone" speed="7.20" length="2.90" shape="1181.43,1245.59 1182.14,1245.11 1182.68,1244.86 1183.27,1244.76 1184.13,1244.73"/>
    </edge>
    <edge id=":10578971222_0" function="internal">
        <lane id=":10578971222_0_0" index="0" disallow="tram rail_urban rail rail_electric rail_fast ship container cable_car subway aircraft wheelchair scooter drone" speed="27.78" length="9.40" shape="1287.57,1249.37 1279.11,1253.47"/>
        <lane id=":10578971222_0_1" index="1" disallow="tram rail_urban rail rail_electric rail_fast ship container cable_car subway aircraft wheelchair scooter drone" speed="27.78" length="9.40" shape="1286.18,1246.49 1277.72,1250.59"/>
    </edge>
    <edge id=":10578971222_2" function="internal">
        <lane id=":10578971222_2_0" index="0" disallow="tram rail_urban rail rail_electric rail_fast ship container cable_car subway aircraft wheelchair scooter drone" speed="6.08" length="7.77" shape="1286.18,1246.49 1283.61,1247.52 1281.58,1247.85 1280.10,1247.48 1279.16,1246.42"/>
    </edge>
    <edge id=":10578971222_3" function="internal">
        <lane id=":10578971222_3_0" index="0" disallow="tram rail_urban rail rail_electric rail_fast ship container cable_car subway aircraft wheelchair scooter drone" speed="6.10" length="7.76" shape="1282.04,1245.04 1282.28,1246.44 1281.63,1247.83 1280.11,1249.21 1277.72,1250.59"/>
    </edge>
    <edge id=":10578971222_4" function="internal">
        <lane id=":10578971222_4_0" index="0" disallow="tram rail_urban rail rail_electric rail_fast ship container cable_car subway aircraft wheelchair scooter drone" speed="3.65" length="4.67" shape="1282.04,1245.04 1281.84,1246.47 1281.29,1247.17 1280.39,1247.16 1279.16,1246.42"/>
    </edge>
    <edge id=":10578971223_0" function="internal">
        <lane id=":10578971223_0_0" index="0" disallow="tram rail_urban rail rail_electric rail_fast ship container cable_car subway aircraft wheelchair scooter drone" speed="7.60" length="6.94" shape="1272.46,1232.37 1271.54,1230.93 1270.33,1229.82 1268.81,1229.04 1266.98,1228.58"/>
    </edge>
    <edge id=":10578971223_1" function="internal">
        <lane id=":10578971223_1_0" index="0" disallow="tram rail_urban rail rail_electric rail_fast ship container cable_car subway aircraft wheelchair scooter drone" speed="9.03" length="2.51" shape="1272.46,1232.37 1271.65,1229.99"/>
    </edge>
    <edge id=":10578971223_2" function="internal">
        <lane id=":10578971223_2_0" index="0" disallow="tram rail_urban rail rail_electric rail_fast ship container cable_car subway aircraft wheelchair scooter drone" speed="3.65" length="1.32" shape="1272.46,1232.37 1272.65,1231.06"/>
    </edge>
    <edge id=":10578971223_9" function="internal">