<?xml version="1.0" encoding="UTF-8"?>

<!-- generated on 2026-03-05T02:15:58.678585+05:30 by Eclipse SUMO netconvert 1.25.0
<netconvertConfiguration xmlns:xsi="http://www.w3.org/2001/XMLSchema-instance" xsi:noNamespaceSchemaLocation="http://sumo.dlr.de/xsd/netconvertConfiguration.xsd">

    <input>
        <osm-files value="bhubaneswar.osm"/>
    </input>

    <output>
        <output-file value="city.net.xml"/>
    </output>

    <projection>
        <proj.utm value="true"/>
    </projection>

    <processing>
        <geometry.remove value="true"/>
    </processing>

    <tls_building>
        <tls.guess-signals value="true"/>
    </tls_building>

    <ramp_guessing>
        <ramps.guess value="true"/>
    </ramp_guessing>

    <junctions>
        <junctions.join value="true"/>
    </junctions>

    <report>
        <no-warnings value="true"/>
    </report>

</netconvertConfiguration>
-->

<net version="1.20" junctionCornerDetail="5" limitTurnSpeed="5.50" xmlns:xsi="http://www.w3.org/2001/XMLSchema-instance" xsi:noNamespaceSchemaLocation="http://sumo.dlr.de/xsd/net_file.xsd">

    <location netOffset="-376498.31,-2241041.89" convBoundary="0.00,0.00,1821.26,2006.06" origBoundary="85.817346,20.263164,85.834811,20.281324" projParameter="+proj=utm +zone=45 +ellps=WGS84 +datum=WGS84 +units=m +no_defs"/>

    <type id="highway.footway" priority="1" numLanes="1" speed="2.78" allow="pedestrian" oneway="1" width="2.00"/>
    <type id="highway.primary" priority="12" numLanes="2" speed="27.78" disallow="tram rail_urban rail rail_electric rail_fast ship container cable_car subway aircraft wheelchair scooter drone" oneway="0"/>
    <type id="highway.primary_link" priority="7" numLanes="1" speed="22.22" disallow="tram rail_urban rail rail_electric rail_fast ship container cable_car subway aircraft wheelchair scooter drone" oneway="0"/>
    <type id="highway.residential" priority="3" numLanes="1" speed="13.89" disallow="tram rail_urban rail rail_electric rail_fast ship container cable_car subway aircraft wheelchair scooter drone" oneway="0"/>
    <type id="highway.secondary" priority="11" numLanes="1" speed="27.78" disallow="tram rail_urban rail rail_electric rail_fast ship container cable_car subway aircraft wheelchair scooter drone" oneway="0"/>
    <type id="highway.service" priority="1" numLanes="1" speed="5.56" allow="pedestrian delivery bicycle" oneway="0"/>
    <type id="highway.tertiary" priority="10" numLanes="1" speed="22.22" disallow="tram rail_urban rail rail_electric rail_fast ship container cable_car subway aircraft wheelchair scooter drone" oneway="0"/>

    <edge id=":10578971194_0" function="internal">
        <lane id=":10578971194_0_0" index="0" disallow="tram rail_urban rail rail_electric rail_fast ship container cable_car subway aircraft wheelchair scooter drone" speed="8.45" length="9.75" shape="605.26,706.36 604.24,704.30 602.67,702.67 600.56,701.47 597.91,700.70"/>
    </edge>
    <edge id=":10578971194_1" function="internal">
        <lane id=":10578971194_1_0" index="0" disallow="tram rail_urban rail rail_electric rail_fast ship container cable_car subway aircraft wheelchair scooter drone" speed="13.89" length="13.27" shape="605.26,706.36 604.37,703.00 604.05,699.87 604.26,696.72 605.00,693.31"/>
    </edge>
    <edge id=":10578971194_2" function="internal">
        <lane id=":10578971194_2_0" index="0" disallow="tram rail_urban rail rail_electric rail_fast ship container cable_car subway aircraft wheelchair scooter drone" speed="3.65" length="1.44" shape="605.26,706.36 605.64,704.97"/>
    </edge>
    <edge id=":10578971194_9" function="internal">
        <lane id=":10578971194_9_0" index="0" disallow="tram rail_urban rail rail_electric rail_fast ship container cable_car subway aircraft wheelchair scooter drone" speed="3.65" length="3.23" shape="605.64,704.97 606.28,704.34 607.16,704.47 608.30,705.36"/>
    </edge>
    <edge id=":10578971194_3" function="internal">
        <lane id=":10578971194_3_0" index="0" disallow="tram rail_urban rail rail_electric rail_fast ship container cable_car subway aircraft wheelchair scooter drone" speed="13.89" length="11.57" shape="608.12,694.03 607.37,697.17 607.13,699.72 607.42,702.26 608.30,705.36"/>
    </edge>
    <edge id=":10578971194_4" function="internal">
        <lane id=":10578971194_4_0" index="0" disallow="tram rail_urban rail rail_electric rail_fast ship container cable_car subway aircraft wheelchair scooter drone" speed="8.09" length="3.67" shape="608.12,694.03 606.69,697.41"/>
    </edge>
    <edge id=":10578971194_5" function="internal">
        <lane id=":10578971194_5_0" index="0" disallow="tram rail_urban rail rail_electric rail_fast ship container cable_car subway aircraft wheelchair scooter drone" speed="3.65" length="1.44" shape="608.12,694.03 607.07,695.02"/>
    </edge>
    <edge id=":10578971194_10" function="internal">
        <lane id=":10578971194_10_0" index="0" disallow="tram rail_urban rail rail_electric rail_fast ship container cable_car subway aircraft wheelchair scooter drone" speed="8.09" length="10.00" shape="606.69,697.41 606.64,697.52 604.45,699.79 601.54,700.85 597.91,700.70"/>
    </edge>
    <edge id=":10578971194_11" function="internal">
        <lane id=":10578971194_11_0" index="0" disallow="tram rail_urban rail rail_electric rail_fast ship container cable_car subway aircraft wheelchair scooter drone" speed="3.65" length="3.23" shape="607.07,695.02 606.20,695.23 605.51,694.66 605.00,693.31"/>
    </edge>
    <edge id=":10578971194_6" function="internal">
        <lane id=":10578971194_6_0" index="0" disallow="tram rail_urban rail rail_electric rail_fast ship container cable_car subway aircraft wheelchair scooter drone" speed="5.85" length="10.75" shape="598.60,697.57 600.43,699.27 602.11,699.13 603.63,697.14 605.00,693.31"/>
    </edge>
    <edge id=":10578971194_7" function="internal">
        <lane id=":10578971194_7_0" index="0" disallow="tram rail_urban rail rail_electric rail_fast ship container cable_car subway aircraft wheelchair scooter drone" speed="13.89" length="12.70" shape="598.60,697.57 601.14,699.83 603.97,701.20 606.54,702.71 608.30,705.36"/>
    </edge>
    <edge id=":10578971194_8" function="internal">
        <lane id=":10578971194_8_0" index="0" disallow="tram rail_urban rail rail_electric rail_fast ship container cable_car subway aircraft wheelchair scooter drone" speed="4.06" length="4.68" shape="598.60,697.57 599.60,698.61 599.82,699.48 599.26,700.18 597.91,700.70"/>
    </edge>
    <edge id=":10578971198_0" function="internal">
        <lane id=":10578971198_0_0" index="0" disallow="tram rail_urban rail rail_electric rail_fast ship container cable_car subway aircraft wheelchair scooter drone" speed="4.29" length="1.17" shape="599.05,682.96 598.70,682.97 598.47,683.02 598.26,683.15 598.00,683.37"/>
    </edge>
    <edge id=":10578971198_1" function="internal">
        <lane id=":10578971198_1_0" index="0" disallow="tram rail_urban rail rail_electric rail_fast ship container cable_car subway aircraft wheelchair scooter drone" speed="6.82" length="3.51" shape="595.87,680.98 596.65,680.31 597.28,679.95 597.99,679.80 599.02,679.76"/>
    </edge>
    <edge id=":10578971202_0" function="internal">
        <lane id=":10578971202_0_0" index="0" disallow="tram rail_urban rail rail_electric rail_fast ship container cable_car subway aircraft wheelchair scooter drone" speed="27.78" length="9.40" shape="704.14,691.20 695.36,694.56"/>
        <lane id=":10578971202_0_1" index="1" disallow="tram rail_urban rail rail_electric rail_fast ship container cable_car subway aircraft wheelchair scooter drone" speed="27.78" length="9.40" shape="703.00,688.21 694.22,691.57"/>
    </edge>
    <edge id=":10578971202_2" function="internal">
        <lane id=":10578971202_2_0" index="0" disallow="tram rail_urban rail rail_electric rail_fast ship container cable_car subway aircraft wheelchair scooter drone" speed="6.08" length="7.77" shape="703.00,688.21 700.35,689.01 698.31,689.17 696.86,688.68 696.01,687.55"/>
    </edge>
    <edge id=":10578971202_3" function="internal">
        <lane id=":10578971202_3_0" index="0" disallow="tram rail_urban rail rail_electric rail_fast ship container cable_car subway aircraft wheelchair scooter drone" speed="6.09" length="7.76" shape="699.00,686.41 699.11,687.83 698.36,689.16 696.72,690.40 694.22,691.57"/>
    </edge>
    <edge id=":10578971202_4" function="internal">
        <lane id=":10578971202_4_0" index="0" disallow="tram rail_urban rail rail_electric rail_fast ship container cable_car subway aircraft wheelchair scooter drone" speed="3.65" length="4.67" shape="699.00,686.41 698.68,687.82 698.07,688.48 697.18,688.39 696.01,687.55"/>
    </edge>
    <edge id=":10578971203_0" function="internal">
        <lane id=":10578971203_0_0" index="0" disallow="tram rail_urban rail rail_electric rail_fast ship container cable_car subway aircraft wheelchair scooter drone" speed="9.37" length="8.17" shape="690.35,672.56 689.45,670.75 688.22,669.20 686.66,667.92 684.76,666.89"/>
    </edge>
    <edge id=":10578971203_1" function="internal">
        <lane id=":10578971203_1_0" index="0" disallow="tram rail_urban rail rail_electric rail_fast ship container cable_car subway aircraft wheelchair scooter drone" speed="13.89" length="2.62" shape="690.35,672.56 689.85,669.98"/>
    </edge>
    <edge id=":10578971203_2" function="internal">
        <lane id=":10578971203_2_0" index="0" disallow="tram rail_urban rail rail_electric rail_fast ship container cable_car subway aircraft wheelchair scooter drone" speed="3.65" length="1.34" shape="690.35,672.56 690.65,671.25"/>
    </edge>
    <edge id=":10578971203_9" function="internal">
        <lane id=":10578971203_9_0" index="0" disallow="tram rail_urban rail rail_electric rail_fast ship container cable_car subway aircraft wheelchair scooter drone" speed="13.89" length="7.86" shape="689.85,669.98 689.80,669.72 690.38,667.67 691.43,665.57 692.32,662.59"/>
    </edge>
    <edge id=":10578971203_10" function="internal">
        <lane id=":10578971203_10_0" index="0" disallow="tram rail_urban rail rail_electric rail_fast ship container cable_car subway aircraft wheelchair scooter drone" speed="3.65" length="3.34" shape="690.65,671.25 690.67,671.15 691.28,670.50 692.17,670.59 693.34,671.43"/>
    </edge>
    <edge id=":10578971203_3" function="internal">
        <lane id=":10578971203_3_0" index="0" disallow="tram rail_urban rail rail_electric rail_fast ship container cable_car subway aircraft wheelchair scooter drone" speed="7.21" length="7.22" shape="694.77,664.74 693.64,666.32 693.02,667.96 692.92,669.66 693.34,671.43"/>
    </edge>
    <edge id=":10578971203_4" function="internal">
        <lane id=":10578971203_4_0" index="0" disallow="tram rail_urban rail rail_electric rail_fast ship container cable_car subway aircraft wheelchair scooter drone" speed="8.13" length="11.02" shape="694.77,664.74 692.57,666.62 690.16,667.61 687.56,667.70 684.76,666.89"/>
    </edge>
    <edge id=":10578971203_5" function="internal">
        <lane id=":10578971203_5_0" index="0" disallow="tram rail_urban rail rail_electric rail_fast ship container cable_car subway aircraft wheelchair scooter drone" speed="3.97" length="4.76" shape="694.77,664.74 693.36,665.12 692.47,664.89 692.13,664.05 692.32,662.59"/>
    </edge>
    <edge id=":10578971203_6" function="internal">
        <lane id=":10578971203_6_0" index="0" disallow="tram rail_urban rail rail_electric rail_fast ship container cable_car subway aircraft wheelchair scooter drone" speed="5.60" length="7.64" shape="686.04,663.96 688.56,664.79 690.44,664.84 691.70,664.11 692.32,662.59"/>
    </edge>
    <edge id=":10578971203_7" function="internal">
        <lane id=":10578971203_7_0" index="0" disallow="tram rail_urban rail rail_electric rail_fast ship container cable_car subway aircraft wheelchair scooter drone" speed="10.67" length="10.73" shape="686.04,663.96 688.50,665.30 690.54,666.99 692.16,669.03 693.34,671.43"/>
    </edge>
    <edge id=":10578971203_8" function="internal">
        <lane id=":10578971203_8_0" index="0" disallow="tram rail_urban rail rail_electric rail_fast ship container cable_car subway aircraft wheelchair scooter drone" speed="3.65" length="1.44" shape="686.04,663.96 686.82,665.17"/>
    </edge>
    <edge id=":10578971203_11" function="internal">
        <lane id=":10578971203_11_0" index="0" disallow="tram rail_urban rail rail_electric rail_fast ship container cable_car subway aircraft wheelchair scooter drone" speed="3.65" length="3.23" shape="686.82,665.17 686.87,666.06 686.18,666.64 684.76,666.89"/>
    </edge>
    <edge id=":10578971208_0" function="internal">
        <lane id=":10578971208_0_0" index="0" disallow="tram rail_urban rail rail_electric rail_fast ship container cable_car subway aircraft wheelchair scooter drone" speed="13.89" length="0.47" shape="687.68,651.87 687.54,651.85 687.45,651.85 687.35,651.85 687.21,651.87"/>
    </edge>
    <edge id=":10578971208_1" function="internal">
        <lane id=":10578971208_1_0" index="0" disallow="tram rail_urban rail rail_electric rail_fast ship container cable_car subway aircraft wheelchair scooter drone" speed="13.89" length="1.41" shape="686.72,648.71 687.13,648.65 687.41,648.63 687.70,648.65 688.11,648.70"/>
    </edge>
    <edge id=":10578971213_0" function="internal">
        <lane id=":10578971213_0_0" index="0" disallow="tram rail_urban rail rail_electric rail_fast ship container cable_car subway aircraft wheelchair scooter drone" speed="27.78" length="9.42" shape="792.65,654.97 783.96,658.61"/>
        <lane id=":10578971213_0_1" index="1" disallow="tram rail_urban rail rail_electric rail_fast ship container cable_car subway aircraft wheelchair scooter drone" speed="27.78" length="9.42" shape="791.41,652.01 782.72,655.66"/>
    </edge>
    <edge id=":10578971213_2" function="internal">
        <lane id=":10578971213_2_0" index="0" disallow="tram rail_urban rail rail_electric rail_fast ship container cable_car subway aircraft wheelchair scooter drone" speed="6.31" length="7.90" shape="791.41,652.01 788.82,652.88 786.76,653.09 785.22,652.64 784.21,651.54"/>
    </edge>
    <edge id=":10578971213_3" function="internal">
        <lane id=":10578971213_3_0" index="0" disallow="tram rail_urban rail rail_electric rail_fast ship container cable_car subway aircraft wheelchair scooter drone" speed="6.00" length="7.99" shape="787.05,650.06 787.39,651.57 786.78,653.01 785.22,654.37 782.72,655.66"/>
    </edge>
    <edge id=":10578971213_4" function="internal">
        <lane id=":10578971213_4_0" index="0" disallow="tram rail_urban rail rail_electric rail_fast ship container cable_car subway aircraft wheelchair scooter drone" speed="3.65" length="4.67" shape="787.05,650.06 786.90,651.49 786.37,652.22 785.48,652.23 784.21,651.54"/>
    </edge>
    <edge id=":10578971214_0" function="internal">
        <lane id=":10578971214_0_0" index="0" disallow="tram rail_urban rail rail_electric rail_fast ship container cable_car subway aircraft wheelchair scooter drone" speed="8.10" length="7.93" shape="776.81,637.30 775.72,635.75 774.28,634.56 772.49,633.73 770.34,633.28"/>
    </edge>
    <edge id=":10578971214_1" function="internal">
        <lane id=":10578971214_1_0" index="0" disallow="tram rail_urban rail rail_electric rail_fast ship container cable_car subway aircraft wheelchair scooter drone" speed="10.34" length="11.05" shape="776.81,637.30 775.84,634.80 775.47,632.18 775.71,629.45 776.56,626.59"/>
    </edge>
    <edge id=":10578971214_2" function="internal">
        <lane id=":10578971214_2_0" index="0" disallow="tram rail_urban rail rail_electric rail_fast ship container cable_car subway aircraft wheelchair scooter drone" speed="3.65" length="1.44" shape="776.81,637.30 776.96,635.87"/>
    </edge>
    <edge id=":10578971214_9" function="internal">
        <lane id=":10578971214_9_0" index="0" disallow="tram rail_urban rail rail_electric rail_fast ship container cable_car subway aircraft wheelchair scooter drone" speed="3.65" length="3.23" shape="776.96,635.87 777.49,635.15 778.38,635.13 779.64,635.83"/>
    </edge>
    <edge id=":10578971214_3" function="internal">
        <lane id=":10578971214_3_0" index="0" disallow="tram rail_urban rail rail_electric rail_fast ship container cable_car subway aircraft wheelchair scooter drone" speed="9.03" length="8.32" shape="779.54,627.76 778.88,629.94 778.68,632.02 778.94,633.98 779.64,635.83"/>
    </edge>
    <edge id=":10578971214_4" function="internal">
        <lane id=":10578971214_4_0" index="0" disallow="tram rail_urban rail rail_electric rail_fast ship container cable_car subway aircraft wheelchair scooter drone" speed="8.09" length="3.10" shape="779.54,627.76 778.03,630.47"/>
    </edge>
    <edge id=":10578971214_5" function="internal">
        <lane id=":10578971214_5_0" index="0" disallow="tram rail_urban rail rail_electric rail_fast ship container cable_car subway aircraft wheelchair scooter drone" speed="3.65" length="1.44" shape="779.54,627.76 778.35,628.58"/>
    </edge>
    <edge id=":10578971214_10" function="internal">
        <lane id=":10578971214_10_0" index="0" disallow="tram rail_urban rail rail_electric rail_fast ship container cable_car subway aircraft wheelchair scooter drone" speed="8.09" length="8.55" shape="778.03,630.47 776.00,632.29 773.44,633.23 770.34,633.28"/>
    </edge>
    <edge id=":10578971214_11" function="internal">
        <lane id=":10578971214_11_0" index="0" disallow="tram rail_urban rail rail_electric rail_fast ship container cable_car subway aircraft wheelchair scooter drone" speed="3.65" length="3.23" shape="778.35,628.58 777.46,628.66 776.87,628.00 776.56,626.59"/>
    </edge>
    <edge id=":10578971214_6" function="internal">
        <lane id=":10578971214_6_0" index="0" disallow="tram rail_urban rail rail_electric rail_fast ship container cable_car subway aircraft wheelchair scooter drone" speed="5.75" length="8.12" shape="770.74,630.10 772.40,630.82 773.92,630.47 775.31,629.06 776.56,626.59"/>
    </edge>
    <edge id=":10578971214_7" function="internal">
        <lane id=":10578971214_7_0" index="0" disallow="tram rail_urban rail rail_electric rail_fast ship container cable_car subway aircraft wheelchair scooter drone" speed="13.89" length="10.85" shape="770.74,630.10 773.52,631.61 775.85,632.40 777.85,633.47 779.64,635.83"/>
    </edge>
    <edge id=":10578971214_8" function="internal">
        <lane id=":10578971214_8_0" index="0" disallow="tram rail_urban rail rail_electric rail_fast ship container cable_car subway aircraft wheelchair scooter drone" speed="3.90" length="4.67" shape="770.74,630.10 771.83,631.05 772.13,631.89 771.63,632.63 770.34,633.28"/>
    </edge>
    <edge id=":10578971218_0" function="internal">
        <lane id=":10578971218_0_0" index="0" disallow="tram rail_urban rail rail_electric rail_fast ship container cable_car subway aircraft wheelchair scooter drone" speed="13.89" length="0.97" shape="770.24,615.59 769.95,615.60 769.76,615.64 769.58,615.72 769.34,615.88"/>
    </edge>
    <edge id=":10578971218_1" function="internal">
        <lane id=":10578971218_1_0" index="0" disallow="tram rail_urban rail rail_electric rail_fast ship container cable_car subway aircraft wheelchair scooter drone" speed="7.21" length="2.90" shape="767.52,613.24 768.23,612.77 768.77,612.52 769.36,612.42 770.21,612.39"/>
    </edge>
    <edge id=":10578971222_0" function="internal">
        <lane id=":10578971222_0_0" index="0" disallow="tram rail_urban rail rail_electric rail_fast ship container cable_car subway aircraft wheelchair scooter drone" speed="27.78" length="9.40" shape="873.66,617.04 865.20,621.14"/>
        <lane id=":10578971222_0_1" index="1" disallow="tram rail_urban rail rail_electric rail_fast ship container cable_car subway aircraft wheelchair scooter drone" speed="27.78" length="9.40" shape="872.27,614.16 863.81,618.26"/>
    </edge>
    <edge id=":10578971222_2" function="internal">
        <lane id=":10578971222_2_0" index="0" disallow="tram rail_urban rail rail_electric rail_fast ship container cable_car subway aircraft wheelchair scooter drone" speed="6.08" length="7.77" shape="872.27,614.16 869.70,615.19 867.67,615.52 866.19,615.15 865.24,614.09"/>
    </edge>
    <edge id=":10578971222_3" function="internal">
        <lane id=":10578971222_3_0" index="0" disallow="tram rail_urban rail rail_electric rail_fast ship container cable_car subway aircraft wheelchair scooter drone" speed="6.10" length="7.76" shape="868.13,612.71 868.36,614.11 867.72,615.50 866.20,616.88 863.81,618.26"/>
    </edge>
    <edge id=":10578971222_4" function="internal">
        <lane id=":10578971222_4_0" index="0" disallow="tram rail_urban rail rail_electric rail_fast ship container cable_car subway aircraft wheelchair scooter drone" speed="3.65" length="4.67" shape="868.13,612.71 867.93,614.14 867.38,614.85 866.48,614.83 865.24,614.09"/>
    </edge>
    <edge id=":10578971223_0" function="internal">
        <lane id=":10578971223_0_0" index="0" disallow="tram rail_urban rail rail_electric rail_fast ship container cable_car subway aircraft wheelchair scooter drone" speed="7.58" length="6.92" shape="858.54,600.02 857.62,598.59 856.41,597.48 854.90,596.70 853.08,596.25"/>
    </edge>
    <edge id=":10578971223_1" function="internal">
        <lane id=":10578971223_1_0" index="0" disallow="tram rail_urban rail rail_electric rail_fast ship container cable_car subway aircraft wheelchair scooter drone" speed="9.01" length="2.51" shape="858.54,600.02 857.73,597.65"/>
    </edge>
    <edge id=":10578971223_2" function="internal">
        <lane id=":10578971223_2_0" index="0" disallow="tram rail_urban rail rail_electric rail_fast ship container cable_car subway aircraft wheelchair scooter drone" speed="3.65" length="1.32" shape="858.54,600.02 858.72,598.71"/>
    </edge>
    <edge id=":10578971223_9" function="internal">
        <lane id=":10578971223_9_0" index="0" disallow="tram rail_urban rail rail_electric rail_fast ship container cable_car subway aircraft wheelchair scooter drone" speed="9.01" length="7.54" shape="857.73,597.65 857.57,595.25 858.05,592.84 859.18,590.40"/>
    </edge>
    <edge id=":10578971223_10" function="internal">
        <lane id=":10578971223_10_0" index="0" disallow="tram rail_urban rail rail_electric rail_fast ship container cable_car subway aircraft wheelchair scooter drone" speed="3.65" length="3.35" shape="858.72,598.71 858.74,598.59 859.29,597.89 860.19,597.91 861.42,598.64"/>
    </edge>
    <edge id=":10578971223_3" function="internal">
        <lane id=":10578971223_3_0" index="0" disallow="tram rail_urban rail rail_electric rail_fast ship container cable_car subway aircraft wheelchair scooter drone" speed="7.56" length="6.91" shape="861.93,592.04 861.14,593.73 860.79,595.40 860.89,597.04 861.42,598.64"/>
    </edge>
    <edge id=":10578971223_4" function="internal">
        <lane id=":10578971223_4_0" index="0" disallow="tram rail_urban rail rail_electric rail_fast ship container cable_car subway aircraft wheelchair scooter drone" speed="8.18" length="10.45" shape="861.93,592.04 860.25,594.20 858.21,595.63 855.82,596.31 853.08,596.25"/>
    </edge>
    <edge id=":10578971223_5" function="internal">
        <lane id=":10578971223_5_0" index="0" disallow="tram rail_urban rail rail_electric rail_fast ship container cable_car subway aircraft wheelchair scooter drone" speed="3.65" length="4.67" shape="861.93,592.04 860.63,592.66 859.74,592.60 859.26,591.84 859.18,590.40"/>
    </edge>
    <edge id=":10578971223_6" function="internal">
        <lane id=":10578971223_6_0" index="0" disallow="tram rail_urban rail rail_electric rail_fast ship container cable_car subway aircraft wheelchair scooter drone" speed="6.65" length="6.65" shape="853.55,593.08 855.29,593.12 856.81,592.69 858.11,591.78 859.18,590.40"/>
    </edge>
    <edge id=":10578971223_7" function="internal">
        <lane id=":10578971223_7_0" index="0" disallow="tram rail_urban rail rail_electric rail_fast ship container cable_car subway aircraft wheelchair scooter drone" speed="9.03" length="10.05" shape="853.55,593.08 856.15,593.74 858.33,594.89 860.09,596.52 861.42,598.64"/>
    </edge>
    <edge id=":10578971223_8" function="internal">
        <lane id=":10578971223_8_0" index="0" disallow="tram rail_urban rail rail_electric rail_fast ship container cable_car subway aircraft wheelchair scooter drone" speed="3.65" length="1.44" shape="853.55,593.08 854.62,594.05"/>
    </edge>
    <edge id=":10578971223_11" function="internal">
        <lane id=":10578971223_11_0" index="0" disallow="tram rail_urban rail rail_electric rail_fast ship container cable_car subway aircraft wheelchair scooter drone" speed="3.65" length="3.23" shape="854.62,594.05 854.90,594.90 854.39,595.63 853.08,596.25"/>
    </edge>
    <edge id=":10578971228_0" function="internal">
        <lane id=":10578971228_0_0" index="0" disallow="tram rail_urban rail rail_electric rail_fast ship container cable_car subway aircraft wheelchair scooter drone" speed="4.10" length="1.44" shape="848.26,577.34 847.90,577.43 847.59,577.59 847.33,577.82 847.11,578.12"/>
    </edge>
    <edge id=":10578971228_1" function="internal">
        <lane id=":10578971228_1_0" index="0" disallow="tram rail_urban rail rail_electric rail_fast ship container cable_car subway aircraft wheelchair scooter drone" speed="6.46" length="4.31" shape="844.34,576.52 844.99,575.62 845.78,574.94 846.71,574.45 847.78,574.18"/>
    </edge>
    <edge id=":11011934256_0" function="internal">
        <lane id=":11011934256_0_0" index="0" allow="pedestrian delivery bicycle" speed="3.65" length="4.67" shape="969.24,959.64 968.55,960.90 967.78,961.36 966.95,961.03 966.06,959.90"/>
    </edge>
    <edge id=":11011934259_0" function="internal">
        <lane id=":11011934259_0_0" index="0" allow="pedestrian delivery bicycle" speed="5.13" length="5.11" shape="939.98,894.66 939.01,893.60 937.95,893.08 936.81,893.11 935.57,893.68"/>
    </edge>
    <edge id=":11011934259_1" function="internal">
        <lane id=":11011934259_1_0" index="0" allow="pedestrian delivery bicycle" speed="6.84" length="10.30" shape="939.98,894.66 938.70,892.13 938.56,889.81 939.56,887.72 941.68,885.84"/>
    </edge>
    <edge id=":11011934259_2" function="internal">
        <lane id=":11011934259_2_0" index="0" allow="pedestrian delivery bicycle" speed="3.65" length="4.67" shape="939.98,894.66 939.95,893.22 940.38,892.43 941.26,892.30 942.60,892.83"/>
    </edge>
    <edge id=":11011934259_3" function="internal">
        <lane id=":11011934259_3_0" index="0" allow="pedestrian delivery bicycle" speed="5.01" length="5.03" shape="943.44,888.52 942.40,889.44 941.91,890.46 941.98,891.59 942.60,892.83"/>
    </edge>
    <edge id=":11011934259_4" function="internal">
        <lane id=":11011934259_4_0" index="0" disallow="tram rail_urban rail rail_electric rail_fast ship container cable_car subway aircraft wheelchair scooter drone" speed="13.89" length="9.40" shape="943.44,888.52 935.57,893.68"/>
    </edge>
    <edge id=":11011934259_5" function="internal">
        <lane id=":11011934259_5_0" index="0" disallow="tram rail_urban rail rail_electric rail_fast ship container cable_car subway aircraft wheelchair scooter drone" speed="13.89" length="9.41" shape="933.82,891.00 941.68,885.84"/>
    </edge>
    <edge id=":11011934259_6" function="internal">
        <lane id=":11011934259_6_0" index="0" allow="pedestrian delivery bicycle" speed="6.93" length="3.21" shape="933.82,891.00 936.30,889.85 936.77,889.83"/>
    </edge>
    <edge id=":11011934259_7" function="internal">
        <lane id=":11011934259_7_0" index="0" allow="pedestrian delivery bicycle" speed="6.93" length="6.96" shape="936.77,889.83 938.59,889.77 940.69,890.76 942.60,892.83"/>
    </edge>
    <edge id=":11124344394_0" function="internal">
        <lane id=":11124344394_0_0" index="0" disallow="tram rail_urban rail rail_electric rail_fast ship container cable_car subway aircraft wheelchair scooter drone" speed="7.20" length="9.88" shape="997.80,747.58 995.94,745.41 993.91,744.19 991.72,743.90 989.37,744.55"/>
    </edge>
    <edge id=":11124344394_1" function="internal">
        <lane id=":11124344394_1_0" index="0" disallow="tram rail_urban rail rail_electric rail_fast ship container cable_car subway aircraft wheelchair scooter drone" speed="7.76" length="14.79" shape="997.80,747.58 995.99,743.85 995.94,740.60 997.63,737.82 1001.08,735.52"/>
    </edge>
    <edge id=":11124344394_2" function="internal">
        <lane id=":11124344394_2_0" index="0" disallow="tram rail_urban rail rail_electric rail_fast ship container cable_car subway aircraft wheelchair scooter drone" speed="3.65" length="4.67" shape="997.80,747.58 997.79,746.14 998.23,745.36 999.12,745.24 1000.45,745.79"/>
    </edge>
    <edge id=":11124344394_3" function="internal">
        <lane id=":11124344394_3_0" index="0" disallow="tram rail_urban rail rail_electric rail_fast ship container cable_car subway aircraft wheelchair scooter drone" speed="6.21" length="9.05" shape="1002.46,738.41 1000.35,739.82 999.31,741.52 999.35,743.51 1000.45,745.79"/>
    </edge>
    <edge id=":11124344394_4" function="internal">
        <lane id=":11124344394_4_0" index="0" disallow="tram rail_urban rail rail_electric rail_fast ship container cable_car subway aircraft wheelchair scooter drone" speed="13.89" length="14.46" shape="1002.46,738.41 989.37,744.55"/>
    </edge>
    <edge id=":11124344394_5" function="internal">
        <lane id=":11124344394_5_0" index="0" disallow="tram rail_urban rail rail_electric rail_fast ship container cable_car subway aircraft wheelchair scooter drone" speed="3.65" length="1.44" shape="1002.46,738.41 1001.03,738.20"/>
    </edge>
    <edge id=":11124344394_9" function="internal">